/*--------------------------------*- C++ -*----------------------------------*\
  =========                 |
  \\      /  F ield         | OpenFOAM: The Open Source CFD Toolbox
   \\    /   O peration     | Website:  https://openfoam.org
    \\  /    A nd           | Version:  9
     \\/     M anipulation  |
\*---------------------------------------------------------------------------*/
FoamFile
{
    format      ascii;
    class       dictionary;
    location    "system";
    object      fvSchemes;
}
// * * * * * * * * * * * * * * * * * * * * * * * * * * * * * * * * * * * * * //

ddtSchemes
{
    default             Euler;
}

gradSchemes
{
    default             Gauss linear;
}

divSchemes
{
    div(rhoPhi,U)       Gauss limitedLinearV 1;
    div(phi,alpha)      Gauss vanLeer;
    div(phirb,alpha)    Gauss interfaceCompression 1;
    div(rhoPhi,T)       Gauss linear;
    div(rhoPhi,K)       Gauss linear;
    div(phi,p)          Gauss linear;
    div(rhoPhi,k)       Gauss limitedLinear 1;
    div(rhoPhi,epsilon) Gauss limitedLinear 1;
    div(((thermo:rho*nuEff)*dev2(T(grad(U))))) Gauss linear;
}

laplacianSchemes
{
    default             Gauss linear corrected;
}

interpolationSchemes
{
    default             linear;
}

snGradSchemes
{
    default             corrected;
}

// ************************************************************************* //
