/*--------------------------------*- C++ -*----------------------------------*\
  =========                 |
  \\      /  F ield         | OpenFOAM: The Open Source CFD Toolbox
   \\    /   O peration     | Website:  https://openfoam.org
    \\  /    A nd           | Version:  9
     \\/     M anipulation  |
\*---------------------------------------------------------------------------*/
FoamFile
{
    format      ascii;
    class       dictionary;
    location    "constant";
    object      thermophysicalProperties;
}
// * * * * * * * * * * * * * * * * * * * * * * * * * * * * * * * * * * * * * //

phases (water air);

pMin            10000;

water
{
    transportModel  Newtonian;
    nu              8.917e-07;
    rho             998;
}

air
{
    transportModel  Newtonian;
    nu              1.552e-05;
    rho             1.2;
}

sigma           0.072;

// ************************************************************************* //
